<?xml version='1.0' encoding='utf-8'?>
<routes>
    <vType id="car" accel="0.8" decel="4.5" sigma="0.5" length="5" maxSpeed="14" guiShape="passenger" />
    <vType id="truck" accel="0.5" decel="3.5" sigma="0.6" length="8" maxSpeed="10" guiShape="truck" />
    <route id="main_east" edges="E0 E9" color="yellow" />
    <route id="main_west" edges="-E9 -E0" color="yellow" />
    <route id="alt_north" edges="-E11 E1" color="yellow" />
    <route id="alt_south" edges="-E8 E3 E11" color="yellow" />
    <vehicle id="veh_0" type="car" route="main_east" depart="0.2" color="0,1,0" />
    <vehicle id="veh_1" type="truck" route="main_east" depart="0.7" color="0,1,0" />
    <vehicle id="veh_2" type="car" route="main_west" depart="0.0" color="0,1,0" />
    <vehicle id="veh_3" type="car" route="main_east" depart="0.5" color="0,1,0" />
    <vehicle id="veh_4" type="car" route="main_west" depart="0.6" color="0,1,0" />
    <vehicle id="veh_5" type="car" route="main_east" depart="0.3" color="0,1,0" />
    <vehicle id="veh_6" type="car" route="main_west" depart="0.1" color="0,1,0" />
    <vehicle id="veh_7" type="car" route="main_east" depart="0.2" color="0,1,0" />
    <vehicle id="veh_8" type="truck" route="main_west" depart="0.3" color="0,1,0" />
    <vehicle id="veh_9" type="car" route="main_east" depart="0.2" color="0,1,0" />
    <vehicle id="veh_10" type="car" route="main_east" depart="0.1" color="0,1,0" />
    <vehicle id="veh_11" type="truck" route="alt_north" depart="0.3" color="0,1,0" />
    <vehicle id="veh_12" type="car" route="main_west" depart="0.3" color="0,1,0" />
    <vehicle id="veh_13" type="truck" route="main_east" depart="0.6" color="0,1,0" />
    <vehicle id="veh_14" type="car" route="main_west" depart="0.8" color="0,1,0" />
    <vehicle id="veh_15" type="car" route="main_west" depart="0.4" color="0,1,0" />
    <vehicle id="veh_16" type="car" route="main_west" depart="0.3" color="0,1,0" />
    <vehicle id="veh_17" type="car" route="main_west" depart="0.6" color="0,1,0" />
    <vehicle id="veh_18" type="car" route="main_east" depart="0.5" color="0,1,0" />
    <vehicle id="veh_19" type="car" route="main_east" depart="0.2" color="0,1,0" />
    <vehicle id="veh_20" type="car" route="alt_north" depart="0.2" color="0,1,0" />
    <vehicle id="veh_21" type="car" route="main_east" depart="0.1" color="0,1,0" />
    <vehicle id="veh_22" type="car" route="main_west" depart="0.4" color="0,1,0" />
    <vehicle id="veh_23" type="car" route="main_east" depart="0.5" color="0,1,0" />
    <vehicle id="veh_24" type="car" route="main_west" depart="1.4" color="0,1,0" />
    <vehicle id="veh_25" type="car" route="main_west" depart="1.1" color="0,1,0" />
    <vehicle id="veh_26" type="car" route="main_east" depart="2.5" color="0,1,0" />
    <vehicle id="veh_27" type="car" route="main_west" depart="2.5" color="0,1,0" />
    <vehicle id="veh_28" type="car" route="main_east" depart="3.1" color="0,1,0" />
    <vehicle id="veh_29" type="car" route="main_west" depart="3.8" color="0,1,0" />
    <vehicle id="veh_30" type="car" route="main_east" depart="4.6" color="0,1,0" />
    <vehicle id="veh_31" type="car" route="main_west" depart="4.5" color="0,1,0" />
    <vehicle id="veh_32" type="car" route="main_west" depart="5.5" color="0,1,0" />
    <vehicle id="veh_33" type="car" route="alt_north" depart="5.1" color="0,1,0" />
    <vehicle id="veh_34" type="car" route="main_west" depart="6.7" color="0,1,0" />
    <vehicle id="veh_35" type="car" route="main_east" depart="6.1" color="0,1,0" />
    <vehicle id="veh_36" type="car" route="main_east" depart="7.6" color="0,1,0" />
    <vehicle id="veh_37" type="car" route="alt_south" depart="7.5" color="0,1,0" />
    <vehicle id="veh_38" type="car" route="main_east" depart="8.8" color="0,1,0" />
    <vehicle id="veh_39" type="car" route="main_west" depart="8.3" color="0,1,0" />
    <vehicle id="veh_40" type="car" route="main_east" depart="9.8" color="0,1,0" />
    <vehicle id="veh_41" type="car" route="alt_north" depart="9.4" color="0,1,0" />
    <vehicle id="veh_42" type="car" route="main_east" depart="10.9" color="0,1,0" />
    <vehicle id="veh_43" type="car" route="main_west" depart="10.2" color="0,1,0" />
    <vehicle id="veh_44" type="truck" route="main_west" depart="11.7" color="0,1,0" />
    <vehicle id="veh_45" type="car" route="main_west" depart="11.5" color="0,1,0" />
    <vehicle id="veh_46" type="car" route="main_east" depart="12.9" color="0,1,0" />
    <vehicle id="veh_47" type="car" route="main_east" depart="12.5" color="0,1,0" />
    <vehicle id="veh_48" type="car" route="alt_south" depart="13.7" color="0,1,0" />
    <vehicle id="veh_49" type="car" route="main_west" depart="13.4" color="0,1,0" />
    <vehicle id="veh_50" type="car" route="main_west" depart="14.8" color="0,1,0" />
    <vehicle id="veh_51" type="car" route="main_west" depart="14.1" color="0,1,0" />
    <vehicle id="veh_52" type="car" route="main_east" depart="15.5" color="0,1,0" />
    <vehicle id="veh_53" type="car" route="main_east" depart="15.1" color="0,1,0" />
    <vehicle id="veh_54" type="truck" route="main_east" depart="16.3" color="0,1,0" />
    <vehicle id="veh_55" type="car" route="main_west" depart="16.4" color="0,1,0" />
    <vehicle id="veh_56" type="car" route="main_west" depart="17.8" color="0,1,0" />
    <vehicle id="veh_57" type="car" route="main_west" depart="17.4" color="0,1,0" />
    <vehicle id="veh_58" type="truck" route="main_east" depart="18.6" color="0,1,0" />
    <vehicle id="veh_59" type="car" route="main_east" depart="18.8" color="0,1,0" />
    <vehicle id="veh_60" type="car" route="main_east" depart="19.6" color="0,1,0" />
    <vehicle id="veh_61" type="car" route="main_east" depart="19.7" color="0,1,0" />
    <vehicle id="veh_62" type="car" route="main_east" depart="20.4" color="0,1,0" />
    <vehicle id="veh_63" type="car" route="main_east" depart="20.2" color="0,1,0" />
    <vehicle id="veh_64" type="car" route="alt_north" depart="20.8" color="0,1,0" />
    <vehicle id="veh_65" type="truck" route="main_west" depart="20.9" color="0,1,0" />
    <vehicle id="veh_66" type="car" route="main_west" depart="20.8" color="0,1,0" />
    <vehicle id="veh_67" type="car" route="main_west" depart="20.4" color="0,1,0" />
    <vehicle id="veh_68" type="car" route="main_east" depart="20.1" color="0,1,0" />
    <vehicle id="veh_69" type="car" route="main_east" depart="20.2" color="0,1,0" />
    <vehicle id="veh_70" type="car" route="main_west" depart="20.4" color="0,1,0" />
    <vehicle id="veh_71" type="car" route="alt_south" depart="20.5" color="0,1,0" />
    <vehicle id="veh_72" type="car" route="main_west" depart="20.3" color="0,1,0" />
    <vehicle id="veh_73" type="car" route="alt_south" depart="20.5" color="0,1,0" />
    <vehicle id="veh_74" type="truck" route="main_west" depart="20.5" color="0,1,0" />
    <vehicle id="veh_75" type="car" route="main_west" depart="20.1" color="0,1,0" />
    <vehicle id="veh_76" type="truck" route="alt_south" depart="20.2" color="0,1,0" />
    <vehicle id="veh_77" type="car" route="main_west" depart="21.2" color="0,1,0" />
    <vehicle id="veh_78" type="car" route="main_east" depart="21.2" color="0,1,0" />
    <vehicle id="veh_79" type="car" route="main_west" depart="22.4" color="0,1,0" />
    <vehicle id="veh_80" type="car" route="main_west" depart="22.8" color="0,1,0" />
    <vehicle id="veh_81" type="car" route="main_east" depart="23.2" color="0,1,0" />
    <vehicle id="veh_82" type="car" route="main_east" depart="23.3" color="0,1,0" />
    <vehicle id="veh_83" type="car" route="main_east" depart="24.1" color="0,1,0" />
    <vehicle id="veh_84" type="car" route="main_west" depart="24.9" color="0,1,0" />
    <vehicle id="veh_85" type="car" route="main_east" depart="25.2" color="0,1,0" />
    <vehicle id="veh_86" type="car" route="alt_north" depart="25.8" color="0,1,0" />
    <vehicle id="veh_87" type="car" route="main_east" depart="26.8" color="0,1,0" />
    <vehicle id="veh_88" type="car" route="main_west" depart="26.9" color="0,1,0" />
    <vehicle id="veh_89" type="truck" route="main_west" depart="27.7" color="0,1,0" />
    <vehicle id="veh_90" type="car" route="main_east" depart="27.8" color="0,1,0" />
    <vehicle id="veh_91" type="truck" route="main_east" depart="28.1" color="0,1,0" />
    <vehicle id="veh_92" type="car" route="main_west" depart="28.5" color="0,1,0" />
    <vehicle id="veh_93" type="car" route="main_west" depart="29.6" color="0,1,0" />
    <vehicle id="veh_94" type="car" route="main_east" depart="29.8" color="0,1,0" />
    <vehicle id="veh_95" type="truck" route="main_west" depart="30.4" color="0,1,0" />
    <vehicle id="veh_96" type="truck" route="main_east" depart="30.7" color="0,1,0" />
    <vehicle id="veh_97" type="car" route="main_west" depart="31.7" color="0,1,0" />
    <vehicle id="veh_98" type="car" route="main_west" depart="31.0" color="0,1,0" />
    <vehicle id="veh_99" type="car" route="main_east" depart="32.8" color="0,1,0" />
    <vehicle id="veh_100" type="car" route="main_west" depart="32.5" color="0,1,0" />
    <vehicle id="veh_101" type="truck" route="main_east" depart="33.3" color="0,1,0" />
    <vehicle id="veh_102" type="car" route="main_west" depart="33.8" color="0,1,0" />
    <vehicle id="veh_103" type="car" route="main_west" depart="34.2" color="0,1,0" />
    <vehicle id="veh_104" type="car" route="main_east" depart="34.8" color="0,1,0" />
    <vehicle id="veh_105" type="car" route="main_east" depart="35.1" color="0,1,0" />
    <vehicle id="veh_106" type="car" route="alt_north" depart="35.9" color="0,1,0" />
    <vehicle id="veh_107" type="car" route="main_west" depart="36.0" color="0,1,0" />
    <vehicle id="veh_108" type="car" route="main_west" depart="36.8" color="0,1,0" />
    <vehicle id="veh_109" type="car" route="main_west" depart="37.7" color="0,1,0" />
    <vehicle id="veh_110" type="car" route="main_east" depart="37.1" color="0,1,0" />
    <vehicle id="veh_111" type="car" route="main_west" depart="38.2" color="0,1,0" />
    <vehicle id="veh_112" type="car" route="main_west" depart="38.3" color="0,1,0" />
    <vehicle id="veh_113" type="car" route="main_west" depart="39.0" color="0,1,0" />
    <vehicle id="veh_114" type="car" route="main_east" depart="39.8" color="0,1,0" />
    <vehicle id="veh_115" type="car" route="main_east" depart="40.4" color="0,1,0" />
    <vehicle id="veh_116" type="car" route="alt_south" depart="40.8" color="0,1,0" />
    <vehicle id="veh_117" type="car" route="main_east" depart="40.2" color="0,1,0" />
    <vehicle id="veh_118" type="car" route="alt_south" depart="40.1" color="0,1,0" />
    <vehicle id="veh_119" type="car" route="main_east" depart="40.3" color="0,1,0" />
    <vehicle id="veh_120" type="car" route="main_west" depart="40.3" color="0,1,0" />
    <vehicle id="veh_121" type="car" route="main_west" depart="40.6" color="0,1,0" />
    <vehicle id="veh_122" type="car" route="main_east" depart="40.5" color="0,1,0" />
    <vehicle id="veh_123" type="car" route="main_west" depart="40.6" color="0,1,0" />
    <vehicle id="veh_124" type="truck" route="main_east" depart="40.6" color="0,1,0" />
    <vehicle id="veh_125" type="car" route="main_east" depart="40.8" color="0,1,0" />
    <vehicle id="veh_126" type="car" route="main_west" depart="40.3" color="0,1,0" />
    <vehicle id="veh_127" type="car" route="main_east" depart="40.3" color="0,1,0" />
    <vehicle id="veh_128" type="car" route="main_east" depart="40.8" color="0,1,0" />
    <vehicle id="veh_129" type="car" route="main_west" depart="40.6" color="0,1,0" />
    <vehicle id="veh_130" type="car" route="main_east" depart="40.0" color="0,1,0" />
    <vehicle id="veh_131" type="car" route="main_east" depart="40.5" color="0,1,0" />
    <vehicle id="veh_132" type="car" route="main_west" depart="40.4" color="0,1,0" />
    <vehicle id="veh_133" type="car" route="main_east" depart="40.8" color="0,1,0" />
    <vehicle id="veh_134" type="car" route="main_west" depart="40.1" color="0,1,0" />
    <vehicle id="veh_135" type="car" route="main_west" depart="40.3" color="0,1,0" />
    <vehicle id="veh_136" type="car" route="main_west" depart="40.6" color="0,1,0" />
    <vehicle id="veh_137" type="car" route="main_east" depart="40.0" color="0,1,0" />
    <vehicle id="veh_138" type="car" route="main_east" depart="40.8" color="0,1,0" />
    <vehicle id="veh_139" type="car" route="main_east" depart="40.6" color="0,1,0" />
    <vehicle id="veh_140" type="car" route="main_east" depart="40.4" color="0,1,0" />
    <vehicle id="veh_141" type="car" route="main_east" depart="41.0" color="0,1,0" />
    <vehicle id="veh_142" type="car" route="main_west" depart="41.1" color="0,1,0" />
    <vehicle id="veh_143" type="car" route="main_east" depart="42.9" color="0,1,0" />
    <vehicle id="veh_144" type="truck" route="main_west" depart="42.2" color="0,1,0" />
    <vehicle id="veh_145" type="car" route="main_west" depart="43.7" color="0,1,0" />
    <vehicle id="veh_146" type="car" route="main_west" depart="43.5" color="0,1,0" />
    <vehicle id="veh_147" type="car" route="alt_south" depart="44.6" color="0,1,0" />
    <vehicle id="veh_148" type="car" route="main_west" depart="44.7" color="0,1,0" />
    <vehicle id="veh_149" type="car" route="main_west" depart="45.7" color="0,1,0" />
    <vehicle id="veh_150" type="car" route="main_west" depart="45.2" color="0,1,0" />
    <vehicle id="veh_151" type="car" route="main_west" depart="46.5" color="0,1,0" />
    <vehicle id="veh_152" type="car" route="main_west" depart="46.1" color="0,1,0" />
    <vehicle id="veh_153" type="car" route="main_east" depart="47.3" color="0,1,0" />
    <vehicle id="veh_154" type="truck" route="main_west" depart="47.2" color="0,1,0" />
    <vehicle id="veh_155" type="car" route="main_west" depart="48.1" color="0,1,0" />
    <vehicle id="veh_156" type="car" route="main_east" depart="48.4" color="0,1,0" />
    <vehicle id="veh_157" type="car" route="main_east" depart="49.8" color="0,1,0" />
    <vehicle id="veh_158" type="car" route="main_west" depart="49.8" color="0,1,0" />
    <vehicle id="veh_159" type="car" route="main_west" depart="50.0" color="0,1,0" />
    <vehicle id="veh_160" type="car" route="main_east" depart="50.8" color="0,1,0" />
    <vehicle id="veh_161" type="car" route="alt_south" depart="51.7" color="0,1,0" />
    <vehicle id="veh_162" type="car" route="main_west" depart="51.2" color="0,1,0" />
    <vehicle id="veh_163" type="car" route="main_east" depart="52.0" color="0,1,0" />
    <vehicle id="veh_164" type="car" route="main_east" depart="52.4" color="0,1,0" />
    <vehicle id="veh_165" type="car" route="main_east" depart="53.1" color="0,1,0" />
    <vehicle id="veh_166" type="truck" route="main_west" depart="53.4" color="0,1,0" />
    <vehicle id="veh_167" type="truck" route="main_west" depart="54.6" color="0,1,0" />
    <vehicle id="veh_168" type="car" route="main_east" depart="54.0" color="0,1,0" />
    <vehicle id="veh_169" type="car" route="main_east" depart="55.3" color="0,1,0" />
    <vehicle id="veh_170" type="car" route="main_west" depart="55.7" color="0,1,0" />
    <vehicle id="veh_171" type="car" route="main_west" depart="56.1" color="0,1,0" />
    <vehicle id="veh_172" type="car" route="main_east" depart="56.9" color="0,1,0" />
    <vehicle id="veh_173" type="car" route="main_east" depart="57.7" color="0,1,0" />
    <vehicle id="veh_174" type="car" route="main_west" depart="57.9" color="0,1,0" />
    <vehicle id="veh_175" type="truck" route="main_east" depart="58.1" color="0,1,0" />
    <vehicle id="veh_176" type="car" route="main_east" depart="58.5" color="0,1,0" />
    <vehicle id="veh_177" type="car" route="main_east" depart="59.7" color="0,1,0" />
    <vehicle id="veh_178" type="car" route="main_east" depart="59.7" color="0,1,0" />
    <vehicle id="veh_179" type="car" route="main_west" depart="60.3" color="0,1,0" />
    <vehicle id="veh_180" type="car" route="main_west" depart="60.5" color="0,1,0" />
    <vehicle id="veh_181" type="car" route="alt_north" depart="60.8" color="0,1,0" />
    <vehicle id="veh_182" type="car" route="main_east" depart="60.7" color="0,1,0" />
    <vehicle id="veh_183" type="car" route="main_east" depart="60.3" color="0,1,0" />
    <vehicle id="veh_184" type="car" route="main_west" depart="60.7" color="0,1,0" />
    <vehicle id="veh_185" type="truck" route="main_west" depart="60.5" color="0,1,0" />
    <vehicle id="veh_186" type="truck" route="main_west" depart="60.6" color="0,1,0" />
    <vehicle id="veh_187" type="car" route="main_east" depart="60.4" color="0,1,0" />
    <vehicle id="veh_188" type="car" route="main_east" depart="60.8" color="0,1,0" />
    <vehicle id="veh_189" type="car" route="main_west" depart="60.2" color="0,1,0" />
    <vehicle id="veh_190" type="car" route="main_west" depart="60.6" color="0,1,0" />
    <vehicle id="veh_191" type="car" route="alt_north" depart="60.4" color="0,1,0" />
    <vehicle id="veh_192" type="car" route="main_west" depart="60.3" color="0,1,0" />
    <vehicle id="veh_193" type="car" route="main_east" depart="60.3" color="0,1,0" />
    <vehicle id="veh_194" type="car" route="main_west" depart="61.5" color="0,1,0" />
    <vehicle id="veh_195" type="car" route="main_west" depart="61.4" color="0,1,0" />
    <vehicle id="veh_196" type="car" route="main_east" depart="62.3" color="0,1,0" />
    <vehicle id="veh_197" type="car" route="main_east" depart="62.5" color="0,1,0" />
    <vehicle id="veh_198" type="car" route="main_west" depart="63.5" color="0,1,0" />
    <vehicle id="veh_199" type="car" route="main_east" depart="63.4" color="0,1,0" />
    <vehicle id="veh_200" type="car" route="main_west" depart="64.4" color="0,1,0" />
    <vehicle id="veh_201" type="car" route="main_west" depart="64.0" color="0,1,0" />
    <vehicle id="veh_202" type="car" route="main_east" depart="65.2" color="0,1,0" />
    <vehicle id="veh_203" type="car" route="main_west" depart="65.5" color="0,1,0" />
    <vehicle id="veh_204" type="car" route="main_east" depart="66.5" color="0,1,0" />
    <vehicle id="veh_205" type="car" route="main_east" depart="66.3" color="0,1,0" />
    <vehicle id="veh_206" type="car" route="main_east" depart="67.3" color="0,1,0" />
    <vehicle id="veh_207" type="car" route="main_west" depart="67.6" color="0,1,0" />
    <vehicle id="veh_208" type="car" route="main_east" depart="68.2" color="0,1,0" />
    <vehicle id="veh_209" type="car" route="main_west" depart="68.5" color="0,1,0" />
    <vehicle id="veh_210" type="car" route="alt_south" depart="69.3" color="0,1,0" />
    <vehicle id="veh_211" type="car" route="main_east" depart="69.6" color="0,1,0" />
    <vehicle id="veh_212" type="truck" route="main_east" depart="70.0" color="0,1,0" />
    <vehicle id="veh_213" type="car" route="main_east" depart="70.6" color="0,1,0" />
    <vehicle id="veh_214" type="truck" route="main_west" depart="71.0" color="0,1,0" />
    <vehicle id="veh_215" type="car" route="main_east" depart="71.3" color="0,1,0" />
    <vehicle id="veh_216" type="car" route="alt_south" depart="72.8" color="0,1,0" />
    <vehicle id="veh_217" type="truck" route="main_east" depart="72.4" color="0,1,0" />
    <vehicle id="veh_218" type="car" route="main_west" depart="73.1" color="0,1,0" />
    <vehicle id="veh_219" type="car" route="main_west" depart="73.1" color="0,1,0" />
    <vehicle id="veh_220" type="car" route="main_east" depart="74.4" color="0,1,0" />
    <vehicle id="veh_221" type="car" route="main_west" depart="74.7" color="0,1,0" />
    <vehicle id="veh_222" type="car" route="main_east" depart="75.3" color="0,1,0" />
    <vehicle id="veh_223" type="car" route="main_west" depart="75.5" color="0,1,0" />
    <vehicle id="veh_224" type="car" route="main_east" depart="76.1" color="0,1,0" />
    <vehicle id="veh_225" type="car" route="main_west" depart="76.2" color="0,1,0" />
    <vehicle id="veh_226" type="car" route="main_east" depart="77.5" color="0,1,0" />
    <vehicle id="veh_227" type="car" route="main_east" depart="77.6" color="0,1,0" />
    <vehicle id="veh_228" type="truck" route="main_west" depart="78.3" color="0,1,0" />
    <vehicle id="veh_229" type="car" route="main_east" depart="78.1" color="0,1,0" />
    <vehicle id="veh_230" type="car" route="main_east" depart="79.7" color="0,1,0" />
    <vehicle id="veh_231" type="car" route="main_west" depart="79.2" color="0,1,0" />
    <vehicle id="veh_232" type="car" route="main_west" depart="80.8" color="0,1,0" />
    <vehicle id="veh_233" type="truck" route="main_west" depart="80.1" color="0,1,0" />
    <vehicle id="veh_234" type="car" route="main_east" depart="80.5" color="0,1,0" />
    <vehicle id="veh_235" type="truck" route="main_east" depart="80.6" color="0,1,0" />
    <vehicle id="veh_236" type="car" route="main_west" depart="80.5" color="0,1,0" />
    <vehicle id="veh_237" type="truck" route="main_west" depart="80.0" color="0,1,0" />
    <vehicle id="veh_238" type="car" route="main_east" depart="80.2" color="0,1,0" />
    <vehicle id="veh_239" type="car" route="main_east" depart="80.8" color="0,1,0" />
    <vehicle id="veh_240" type="car" route="main_west" depart="80.9" color="0,1,0" />
    <vehicle id="veh_241" type="car" route="main_west" depart="80.0" color="0,1,0" />
    <vehicle id="veh_242" type="car" route="main_west" depart="80.6" color="0,1,0" />
    <vehicle id="veh_243" type="car" route="alt_north" depart="80.5" color="0,1,0" />
    <vehicle id="veh_244" type="car" route="main_west" depart="80.1" color="0,1,0" />
    <vehicle id="veh_245" type="car" route="main_east" depart="80.6" color="0,1,0" />
    <vehicle id="veh_246" type="car" route="main_west" depart="80.6" color="0,1,0" />
    <vehicle id="veh_247" type="car" route="main_east" depart="81.7" color="0,1,0" />
    <vehicle id="veh_248" type="car" route="main_west" depart="81.3" color="0,1,0" />
    <vehicle id="veh_249" type="car" route="main_east" depart="82.4" color="0,1,0" />
    <vehicle id="veh_250" type="car" route="main_west" depart="82.6" color="0,1,0" />
    <vehicle id="veh_251" type="car" route="main_west" depart="83.2" color="0,1,0" />
    <vehicle id="veh_252" type="car" route="main_east" depart="83.6" color="0,1,0" />
    <vehicle id="veh_253" type="car" route="main_west" depart="84.5" color="0,1,0" />
    <vehicle id="veh_254" type="car" route="alt_north" depart="84.6" color="0,1,0" />
    <vehicle id="veh_255" type="car" route="main_east" depart="85.5" color="0,1,0" />
    <vehicle id="veh_256" type="car" route="main_east" depart="85.5" color="0,1,0" />
    <vehicle id="veh_257" type="truck" route="main_west" depart="86.9" color="0,1,0" />
    <vehicle id="veh_258" type="car" route="alt_north" depart="86.1" color="0,1,0" />
    <vehicle id="veh_259" type="car" route="main_west" depart="87.6" color="0,1,0" />
    <vehicle id="veh_260" type="car" route="main_west" depart="87.8" color="0,1,0" />
    <vehicle id="veh_261" type="car" route="alt_south" depart="88.5" color="0,1,0" />
    <vehicle id="veh_262" type="car" route="main_east" depart="88.5" color="0,1,0" />
    <vehicle id="veh_263" type="car" route="main_west" depart="89.2" color="0,1,0" />
    <vehicle id="veh_264" type="car" route="main_west" depart="89.8" color="0,1,0" />
    <vehicle id="veh_265" type="car" route="main_west" depart="90.3" color="0,1,0" />
    <vehicle id="veh_266" type="car" route="main_east" depart="90.9" color="0,1,0" />
    <vehicle id="veh_267" type="truck" route="main_west" depart="91.5" color="0,1,0" />
    <vehicle id="veh_268" type="car" route="main_east" depart="91.5" color="0,1,0" />
    <vehicle id="veh_269" type="car" route="main_west" depart="92.2" color="0,1,0" />
    <vehicle id="veh_270" type="car" route="main_west" depart="92.2" color="0,1,0" />
    <vehicle id="veh_271" type="truck" route="main_west" depart="93.7" color="0,1,0" />
    <vehicle id="veh_272" type="car" route="main_west" depart="93.3" color="0,1,0" />
    <vehicle id="veh_273" type="car" route="main_west" depart="94.9" color="0,1,0" />
    <vehicle id="veh_274" type="truck" route="main_west" depart="94.5" color="0,1,0" />
    <vehicle id="veh_275" type="car" route="main_west" depart="95.8" color="0,1,0" />
    <vehicle id="veh_276" type="car" route="main_east" depart="95.4" color="0,1,0" />
    <vehicle id="veh_277" type="car" route="main_west" depart="96.6" color="0,1,0" />
    <vehicle id="veh_278" type="car" route="main_east" depart="96.9" color="0,1,0" />
    <vehicle id="veh_279" type="car" route="main_east" depart="97.6" color="0,1,0" />
    <vehicle id="veh_280" type="car" route="main_west" depart="97.8" color="0,1,0" />
    <vehicle id="veh_281" type="car" route="main_east" depart="98.6" color="0,1,0" />
    <vehicle id="veh_282" type="car" route="main_west" depart="98.0" color="0,1,0" />
    <vehicle id="veh_283" type="car" route="main_east" depart="99.8" color="0,1,0" />
    <vehicle id="veh_284" type="car" route="alt_south" depart="99.4" color="0,1,0" />
    <vehicle id="veh_285" type="car" route="main_west" depart="100.1" color="0,1,0" />
    <vehicle id="veh_286" type="car" route="main_east" depart="100.0" color="0,1,0" />
    <vehicle id="veh_287" type="truck" route="main_east" depart="100.3" color="0,1,0" />
    <vehicle id="veh_288" type="car" route="main_east" depart="100.4" color="0,1,0" />
    <vehicle id="veh_289" type="car" route="main_west" depart="100.2" color="0,1,0" />
    <vehicle id="veh_290" type="car" route="main_west" depart="100.6" color="0,1,0" />
    <vehicle id="veh_291" type="car" route="main_west" depart="100.2" color="0,1,0" />
    <vehicle id="veh_292" type="car" route="main_west" depart="100.6" color="0,1,0" />
    <vehicle id="veh_293" type="car" route="main_west" depart="100.3" color="0,1,0" />
    <vehicle id="veh_294" type="truck" route="main_west" depart="100.9" color="0,1,0" />
    <vehicle id="veh_295" type="car" route="alt_south" depart="100.9" color="0,1,0" />
    <vehicle id="veh_296" type="car" route="main_west" depart="100.3" color="0,1,0" />
    <vehicle id="veh_297" type="car" route="alt_south" depart="100.1" color="0,1,0" />
    <vehicle id="veh_298" type="car" route="main_east" depart="100.3" color="0,1,0" />
    <vehicle id="veh_299" type="truck" route="main_west" depart="100.7" color="0,1,0" />
    <vehicle id="veh_300" type="truck" route="main_east" depart="101.8" color="0,1,0" />
    <vehicle id="veh_301" type="car" route="main_west" depart="101.8" color="0,1,0" />
    <vehicle id="veh_302" type="car" route="main_west" depart="102.8" color="0,1,0" />
    <vehicle id="veh_303" type="car" route="main_west" depart="102.7" color="0,1,0" />
    <vehicle id="veh_304" type="car" route="main_east" depart="103.2" color="0,1,0" />
    <vehicle id="veh_305" type="car" route="main_west" depart="103.6" color="0,1,0" />
    <vehicle id="veh_306" type="truck" route="main_east" depart="104.6" color="0,1,0" />
    <vehicle id="veh_307" type="car" route="main_east" depart="104.0" color="0,1,0" />
    <vehicle id="veh_308" type="truck" route="main_east" depart="105.8" color="0,1,0" />
    <vehicle id="veh_309" type="car" route="main_east" depart="105.2" color="0,1,0" />
    <vehicle id="veh_310" type="car" route="main_west" depart="106.3" color="0,1,0" />
    <vehicle id="veh_311" type="car" route="main_west" depart="106.1" color="0,1,0" />
    <vehicle id="veh_312" type="car" route="alt_north" depart="107.9" color="0,1,0" />
    <vehicle id="veh_313" type="car" route="main_east" depart="107.7" color="0,1,0" />
    <vehicle id="veh_314" type="truck" route="main_west" depart="108.7" color="0,1,0" />
    <vehicle id="veh_315" type="car" route="main_east" depart="108.6" color="0,1,0" />
    <vehicle id="veh_316" type="car" route="main_east" depart="109.5" color="0,1,0" />
    <vehicle id="veh_317" type="car" route="main_east" depart="109.2" color="0,1,0" />
    <vehicle id="veh_318" type="car" route="main_east" depart="110.7" color="0,1,0" />
    <vehicle id="veh_319" type="car" route="main_east" depart="110.6" color="0,1,0" />
    <vehicle id="veh_320" type="car" route="main_east" depart="111.4" color="0,1,0" />
    <vehicle id="veh_321" type="car" route="main_west" depart="111.3" color="0,1,0" />
    <vehicle id="veh_322" type="car" route="main_west" depart="112.6" color="0,1,0" />
    <vehicle id="veh_323" type="car" route="main_west" depart="112.6" color="0,1,0" />
    <vehicle id="veh_324" type="truck" route="main_east" depart="113.0" color="0,1,0" />
    <vehicle id="veh_325" type="truck" route="alt_south" depart="113.2" color="0,1,0" />
    <vehicle id="veh_326" type="car" route="main_west" depart="114.3" color="0,1,0" />
    <vehicle id="veh_327" type="car" route="alt_north" depart="114.5" color="0,1,0" />
    <vehicle id="veh_328" type="car" route="main_west" depart="115.8" color="0,1,0" />
    <vehicle id="veh_329" type="car" route="main_west" depart="115.6" color="0,1,0" />
    <vehicle id="veh_330" type="car" route="alt_north" depart="116.6" color="0,1,0" />
    <vehicle id="veh_331" type="car" route="main_east" depart="116.2" color="0,1,0" />
    <vehicle id="veh_332" type="car" route="main_east" depart="117.3" color="0,1,0" />
    <vehicle id="veh_333" type="car" route="alt_north" depart="117.1" color="0,1,0" />
    <vehicle id="veh_334" type="car" route="main_east" depart="118.9" color="0,1,0" />
    <vehicle id="veh_335" type="truck" route="main_west" depart="118.2" color="0,1,0" />
    <vehicle id="veh_336" type="car" route="main_west" depart="119.0" color="0,1,0" />
    <vehicle id="veh_337" type="car" route="main_east" depart="119.7" color="0,1,0" />
    <vehicle id="veh_338" type="car" route="main_east" depart="120.2" color="0,1,0" />